56
C22H24ClN9 optimized with DFTB in AMS.
H        -4.57146430722838       7.01779011561440       6.39988131014489
C        -7.96307672000000       6.80890000000000       5.95377302000000
C        -9.06265601791673       6.64380750725833       6.77596035020732
C        -8.86216823057625       6.43824470771940       8.13102029060031
H         2.69411590736967       6.80910546313829      14.63936416194063
N        -6.50834114776699       6.62631762875124       7.87335714601121
C        -6.68650361000000       6.80890000000000       6.55438014000000
C        -5.44052504429221       7.00893094820362       5.74426014452191
N        -6.93195578099131       6.15075358041756      11.23608015933470
C        -8.22569918107485       6.80107053350783      14.77644084159984
H         2.69316098645102       6.81036461025890      12.12714834572757
H        -9.71973894274989       6.28797313341388       8.77792081451159
N        -6.08546442433577       6.75762945651596      13.86536771936132
H        -8.06402149009931       6.94529487967008       4.88476324433861
N        -7.44814732122854       6.82092331119420      13.74208784447659
H       -13.25690032502669       6.76985304707502      13.33885955045747
H       -10.06748240313922       6.65378475950544       6.36792147739806
H        -9.13583643668609       6.99245903261944      12.37652977621639
N        -3.95793772803205       6.83036239154187      13.00683231759982
C         0.54939577033961       6.80506042198246      12.01883514059564
C        -0.66147837567644       6.80315670131663      12.73190772102816
N        -0.64286531193054       6.80689322820178      14.07116163459089
H       -11.52649858805152       6.91456002934456      11.63091657310855
C        -5.28777404639700       6.76426748481500      12.78945816940625
H        -5.61207820225587       6.78193010266844      14.79962799423809
H        -3.59892085844987       6.85741808195765      13.98560796047452
H        -1.54359621208086       6.74978007328937      10.82896050988683
C        -1.87022991394062       6.78345710169267      11.87274396992177
N        -3.15885680414850       6.78649906775282      11.89931121970073
Cl       -4.04600358103973       6.85772427843739      15.89530055964796
H         0.54223632781896       6.80343433677347      10.93427970201001
N        -5.73386613281532       6.78059495202237      11.49025106890098
H        -7.87936538667027       6.72987051958084      15.80778111150036
C       -12.21397801000000       6.80890000000000      13.65361553000000
C       -11.25089187604477       6.88983262001012      12.67871765260302
C        -9.94465164442698       6.92806635490833      13.09161413510817
C        -9.67487553172485       6.85444710676269      14.46400497830678
H        -0.62676990342427       6.81870837787464      16.52073363651615
C         1.77325971000000       6.80890000000000      14.07117892000000
C         1.76454654853089       6.80900745390510      12.68814136699110
C        -7.56614152489936       6.41821486117334       8.67100850699548
N       -10.65369890254762       6.81392734603277      15.40076161641198
C       -11.97205777000000       6.80890000000000      15.05168814000000
C         0.52251845000000       6.80890000000000      14.73033373000000
C         0.42123843046295       6.81064491417507      16.22554352425246
C       -13.00296784428588       6.77321439072540      16.12224337761589
H       -14.00548685088909       6.77092662421155      15.69720041568891
H        -5.01414516084250       6.75019433073713      10.77203922687255
H        -8.48213169401000       5.49009473134495      10.30229468022936
C        -7.55338324183036       6.04087812210209      10.11934283604963
H        -5.48824068387006       7.95269364588032       5.19934224534839
H        -5.32882806477288       6.20436710176168       5.01597736375325
H       -12.89035857257341       7.64257799381536      16.77140040751542
H       -12.87028991373387       5.87988254600555      16.73435103451706
H         0.91829270279418       7.68940978482864      16.63874174929992
H         0.90413008669784       5.92416715675565      16.63920509006781
